LTspice 24.0.9 for Windows
Circuit: * C:\Users\juanm\OneDrive - ITBA\ITBA\DISEŃO\lanzador\llave analogica canalN\llave canal N.asc
Start Time: Sun Dec  7 17:46:55 2025
solver = Normal
Maximum thread count: 20
tnom = 27
temp = 27
method = modified trap
Direct Newton iteration for .op point succeeded.
Total elapsed time: 0.081 seconds.

