LTspice 24.0.9 for Windows
Circuit: * C:\Users\juanm\OneDrive - ITBA\ITBA\DISEŃO\lanzador\bleeding\bleeding.asc
Start Time: Sun Jan 18 14:42:34 2026
solver = Normal
Maximum thread count: 20
tnom = 27
temp = 27
method = modified trap
Direct Newton iteration for .op point succeeded.
Ignoring empty pin current: Ix(u2:vc+)
Ignoring empty pin current: Ix(u2:vc-)
Ignoring empty pin current: Ix(u4:vc+)
Ignoring empty pin current: Ix(u4:vc-)
Ignoring empty pin current: Ix(u6:vc+)
Ignoring empty pin current: Ix(u6:vc-)
Ignoring empty pin current: Ix(u7:vc+)
Ignoring empty pin current: Ix(u7:vc-)
Ignoring empty pin current: Ix(u8:vc+)
Ignoring empty pin current: Ix(u8:vc-)
Ignoring empty pin current: Ix(u2:vc+)
Ignoring empty pin current: Ix(u2:vc-)
Ignoring empty pin current: Ix(u4:vc+)
Ignoring empty pin current: Ix(u4:vc-)
Ignoring empty pin current: Ix(u6:vc+)
Ignoring empty pin current: Ix(u6:vc-)
Ignoring empty pin current: Ix(u7:vc+)
Ignoring empty pin current: Ix(u7:vc-)
Ignoring empty pin current: Ix(u8:vc+)
Ignoring empty pin current: Ix(u8:vc-)
Total elapsed time: 0.173 seconds.

