LTspice 24.0.9 for Windows
Circuit: * C:\Users\juanm\OneDrive - ITBA\ITBA\DISEŃO\lanzador\lanzador\lanzador.asc
Start Time: Mon Nov 10 18:50:43 2025
solver = Normal
Maximum thread count: 20
tnom = 27
temp = 27
method = modified trap
Direct Newton iteration for .op point succeeded.
Ignoring empty pin current: Ix(u2:vc+)
Ignoring empty pin current: Ix(u2:vc-)
Ignoring empty pin current: Ix(u2:vc+)
Ignoring empty pin current: Ix(u2:vc-)
Total elapsed time: 0.997 seconds.

