LTspice 24.0.9 for Windows
Circuit: * C:\Users\juanm\OneDrive - ITBA\ITBA\DISEčO\lanzador\llave analogica\llave analogica.asc
Start Time: Sun Jan 18 10:50:31 2026
solver = Normal
Maximum thread count: 20
tnom = 27
temp = 27
method = modified trap
.OP point found by inspection.
Total elapsed time: 1.498 seconds.

